optran: no such command available in ngspice

Compatibility modes selected: hs a

Warning: m=xx on .subckt line will override multiplier m hierarchy!

Warning: redefinition of .subckt sky130_fd_pr__pnp_05v5_w0p68l0p68, ignored
Warning: redefinition of .subckt sky130_fd_pr__res_generic_po, ignored
Warning: redefinition of .subckt sky130_fd_pr__res_generic_nd, ignored
Warning: redefinition of .subckt sky130_fd_pr__res_generic_pd, ignored
Warning: redefinition of .subckt sky130_fd_pr__model__parasitic__res_po, ignored
Warning: redefinition of .subckt sky130_fd_pr__res_xhigh_po, ignored
Warning: redefinition of .subckt sky130_fd_pr__res_high_po, ignored
Warning: redefinition of .subckt sky130_fd_pr__res_xhigh_po_0p35, ignored
Warning: redefinition of .subckt sky130_fd_pr__res_xhigh_po_0p69, ignored
Warning: redefinition of .subckt sky130_fd_pr__res_xhigh_po_1p41, ignored
Warning: redefinition of .subckt sky130_fd_pr__res_xhigh_po_2p85, ignored
Warning: redefinition of .subckt sky130_fd_pr__res_xhigh_po_5p73, ignored
Warning: redefinition of .subckt sky130_fd_pr__res_xhigh_po__base, ignored
Warning: redefinition of .subckt sky130_fd_pr__res_high_po_0p35, ignored
Warning: redefinition of .subckt sky130_fd_pr__res_high_po_0p69, ignored
Warning: redefinition of .subckt sky130_fd_pr__res_high_po_1p41, ignored
Warning: redefinition of .subckt sky130_fd_pr__res_high_po_2p85, ignored
Warning: redefinition of .subckt sky130_fd_pr__res_high_po_5p73, ignored

Circuit: * /home/2019uee0117/esim-workspace/counter/counter.cir

option SCALE: Scale is set to 1e-06 for instance and model parameters
Reducing trtol to 1 for xspice 'A' devices
Doing analysis at TEMP = 27.000000 and TNOM = 27.000000

Warning: include: has no value, DC 0 assumed
Warning: v1: no DC value, transient time 0 value used
Warning: v3: no DC value, transient time 0 value used
=============shubhang_cnt3 : New Iteration===========
Instance : 0

Inside foo before eval.....
clk=0
rst=0
out=0

Inside foo after eval.....
clk=0
rst=0
out=0
=============shubhang_cnt3 : New Iteration===========
Instance : 0

Inside foo before eval.....
clk=0
rst=0
out=0

Inside foo after eval.....
clk=0
rst=0
out=0
=============shubhang_cnt3 : New Iteration===========
Instance : 0

Inside foo before eval.....
clk=0
rst=0
out=0

Inside foo after eval.....
clk=1
rst=0
out=1
=============shubhang_cnt3 : New Iteration===========
Instance : 0

Inside foo before eval.....
clk=1
rst=0
out=1

Inside foo after eval.....
clk=1
rst=1
out=1
=============shubhang_cnt3 : New Iteration===========
Instance : 0

Inside foo before eval.....
clk=1
rst=1
out=1

Inside foo after eval.....
clk=1
rst=1
out=1
=============shubhang_cnt3 : New Iteration===========
Instance : 0

Inside foo before eval.....
clk=1
rst=1
out=1

Inside foo after eval.....
clk=0
rst=1
out=1
=============shubhang_cnt3 : New Iteration===========
Instance : 0

Inside foo before eval.....
clk=0
rst=1
out=1

Inside foo after eval.....
clk=1
rst=1
out=0
=============shubhang_cnt3 : New Iteration===========
Instance : 0

Inside foo before eval.....
clk=1
rst=1
out=0

Inside foo after eval.....
clk=0
rst=1
out=0
=============shubhang_cnt3 : New Iteration===========
Instance : 0

Inside foo before eval.....
clk=0
rst=1
out=0

Inside foo after eval.....
clk=1
rst=1
out=0
=============shubhang_cnt3 : New Iteration===========
Instance : 0

Inside foo before eval.....
clk=1
rst=1
out=0

Inside foo after eval.....
clk=0
rst=1
out=0
=============shubhang_cnt3 : New Iteration===========
Instance : 0

Inside foo before eval.....
clk=0
rst=1
out=0

Inside foo after eval.....
clk=1
rst=1
out=0
=============shubhang_cnt3 : New Iteration===========
Instance : 0

Inside foo before eval.....
clk=1
rst=1
out=0

Inside foo after eval.....
clk=0
rst=1
out=0
=============shubhang_cnt3 : New Iteration===========
Instance : 0

Inside foo before eval.....
clk=0
rst=1
out=0

Inside foo after eval.....
clk=1
rst=1
out=0
=============shubhang_cnt3 : New Iteration===========
Instance : 0

Inside foo before eval.....
clk=1
rst=1
out=0

Inside foo after eval.....
clk=0
rst=1
out=0
=============shubhang_cnt3 : New Iteration===========
Instance : 0

Inside foo before eval.....
clk=0
rst=1
out=0

Inside foo after eval.....
clk=1
rst=1
out=0
=============shubhang_cnt3 : New Iteration===========
Instance : 0

Inside foo before eval.....
clk=1
rst=1
out=0

Inside foo after eval.....
clk=1
rst=0
out=0
=============shubhang_cnt3 : New Iteration===========
Instance : 0

Inside foo before eval.....
clk=1
rst=0
out=0

Inside foo after eval.....
clk=0
rst=0
out=0
=============shubhang_cnt3 : New Iteration===========
Instance : 0

Inside foo before eval.....
clk=0
rst=0
out=0

Inside foo after eval.....
clk=1
rst=0
out=1
=============shubhang_cnt3 : New Iteration===========
Instance : 0

Inside foo before eval.....
clk=1
rst=0
out=1

Inside foo after eval.....
clk=0
rst=0
out=1
=============shubhang_cnt3 : New Iteration===========
Instance : 0

Inside foo before eval.....
clk=0
rst=0
out=1

Inside foo after eval.....
clk=1
rst=0
out=2
=============shubhang_cnt3 : New Iteration===========
Instance : 0

Inside foo before eval.....
clk=1
rst=0
out=2

Inside foo after eval.....
clk=0
rst=0
out=2
=============shubhang_cnt3 : New Iteration===========
Instance : 0

Inside foo before eval.....
clk=0
rst=0
out=2

Inside foo after eval.....
clk=1
rst=0
out=3
=============shubhang_cnt3 : New Iteration===========
Instance : 0

Inside foo before eval.....
clk=1
rst=0
out=3

Inside foo after eval.....
clk=0
rst=0
out=3
=============shubhang_cnt3 : New Iteration===========
Instance : 0

Inside foo before eval.....
clk=0
rst=0
out=3

Inside foo after eval.....
clk=1
rst=0
out=4
=============shubhang_cnt3 : New Iteration===========
Instance : 0

Inside foo before eval.....
clk=1
rst=0
out=4

Inside foo after eval.....
clk=0
rst=0
out=4
=============shubhang_cnt3 : New Iteration===========
Instance : 0

Inside foo before eval.....
clk=0
rst=0
out=4

Inside foo after eval.....
clk=1
rst=0
out=5
=============shubhang_cnt3 : New Iteration===========
Instance : 0

Inside foo before eval.....
clk=1
rst=0
out=5

Inside foo after eval.....
clk=1
rst=1
out=5
=============shubhang_cnt3 : New Iteration===========
Instance : 0

Inside foo before eval.....
clk=1
rst=1
out=5

Inside foo after eval.....
clk=1
rst=1
out=5
=============shubhang_cnt3 : New Iteration===========
Instance : 0

Inside foo before eval.....
clk=1
rst=1
out=5

Inside foo after eval.....
clk=0
rst=1
out=5
=============shubhang_cnt3 : New Iteration===========
Instance : 0

Inside foo before eval.....
clk=0
rst=1
out=5

Inside foo after eval.....
clk=1
rst=1
out=0
=============shubhang_cnt3 : New Iteration===========
Instance : 0

Inside foo before eval.....
clk=1
rst=1
out=0

Inside foo after eval.....
clk=0
rst=1
out=0
=============shubhang_cnt3 : New Iteration===========
Instance : 0

Inside foo before eval.....
clk=0
rst=1
out=0

Inside foo after eval.....
clk=1
rst=1
out=0
=============shubhang_cnt3 : New Iteration===========
Instance : 0

Inside foo before eval.....
clk=1
rst=1
out=0

Inside foo after eval.....
clk=0
rst=1
out=0
=============shubhang_cnt3 : New Iteration===========
Instance : 0

Inside foo before eval.....
clk=0
rst=1
out=0

Inside foo after eval.....
clk=1
rst=1
out=0
=============shubhang_cnt3 : New Iteration===========
Instance : 0

Inside foo before eval.....
clk=1
rst=1
out=0

Inside foo after eval.....
clk=0
rst=1
out=0
=============shubhang_cnt3 : New Iteration===========
Instance : 0

Inside foo before eval.....
clk=0
rst=1
out=0

Inside foo after eval.....
clk=1
rst=1
out=0
=============shubhang_cnt3 : New Iteration===========
Instance : 0

Inside foo before eval.....
clk=1
rst=1
out=0

Inside foo after eval.....
clk=0
rst=1
out=0
=============shubhang_cnt3 : New Iteration===========
Instance : 0

Inside foo before eval.....
clk=0
rst=1
out=0

Inside foo after eval.....
clk=1
rst=1
out=0
=============shubhang_cnt3 : New Iteration===========
Instance : 0

Inside foo before eval.....
clk=1
rst=1
out=0

Inside foo after eval.....
clk=1
rst=0
out=0
=============shubhang_cnt3 : New Iteration===========
Instance : 0

Inside foo before eval.....
clk=1
rst=0
out=0

Inside foo after eval.....
clk=0
rst=0
out=0
=============shubhang_cnt3 : New Iteration===========
Instance : 0

Inside foo before eval.....
clk=0
rst=0
out=0

Inside foo after eval.....
clk=1
rst=0
out=1
=============shubhang_cnt3 : New Iteration===========
Instance : 0

Inside foo before eval.....
clk=1
rst=0
out=1

Inside foo after eval.....
clk=0
rst=0
out=1
=============shubhang_cnt3 : New Iteration===========
Instance : 0

Inside foo before eval.....
clk=0
rst=0
out=1

Inside foo after eval.....
clk=1
rst=0
out=2
=============shubhang_cnt3 : New Iteration===========
Instance : 0

Inside foo before eval.....
clk=1
rst=0
out=2

Inside foo after eval.....
clk=0
rst=0
out=2
=============shubhang_cnt3 : New Iteration===========
Instance : 0

Inside foo before eval.....
clk=0
rst=0
out=2

Inside foo after eval.....
clk=1
rst=0
out=3
=============shubhang_cnt3 : New Iteration===========
Instance : 0

Inside foo before eval.....
clk=1
rst=0
out=3

Inside foo after eval.....
clk=0
rst=0
out=3
=============shubhang_cnt3 : New Iteration===========
Instance : 0

Inside foo before eval.....
clk=0
rst=0
out=3

Inside foo after eval.....
clk=1
rst=0
out=4
=============shubhang_cnt3 : New Iteration===========
Instance : 0

Inside foo before eval.....
clk=1
rst=0
out=4

Inside foo after eval.....
clk=0
rst=0
out=4
=============shubhang_cnt3 : New Iteration===========
Instance : 0

Inside foo before eval.....
clk=0
rst=0
out=4

Inside foo after eval.....
clk=1
rst=0
out=5
=============shubhang_cnt3 : New Iteration===========
Instance : 0

Inside foo before eval.....
clk=1
rst=0
out=5

Inside foo after eval.....
clk=1
rst=1
out=5
=============shubhang_cnt3 : New Iteration===========
Instance : 0

Inside foo before eval.....
clk=1
rst=1
out=5

Inside foo after eval.....
clk=1
rst=1
out=5
=============shubhang_cnt3 : New Iteration===========
Instance : 0

Inside foo before eval.....
clk=1
rst=1
out=5

Inside foo after eval.....
clk=0
rst=1
out=5
=============shubhang_cnt3 : New Iteration===========
Instance : 0

Inside foo before eval.....
clk=0
rst=1
out=5

Inside foo after eval.....
clk=1
rst=1
out=0
=============shubhang_cnt3 : New Iteration===========
Instance : 0

Inside foo before eval.....
clk=1
rst=1
out=0

Inside foo after eval.....
clk=0
rst=1
out=0
=============shubhang_cnt3 : New Iteration===========
Instance : 0

Inside foo before eval.....
clk=0
rst=1
out=0

Inside foo after eval.....
clk=1
rst=1
out=0
=============shubhang_cnt3 : New Iteration===========
Instance : 0

Inside foo before eval.....
clk=1
rst=1
out=0

Inside foo after eval.....
clk=0
rst=1
out=0
=============shubhang_cnt3 : New Iteration===========
Instance : 0

Inside foo before eval.....
clk=0
rst=1
out=0

Inside foo after eval.....
clk=1
rst=1
out=0
=============shubhang_cnt3 : New Iteration===========
Instance : 0

Inside foo before eval.....
clk=1
rst=1
out=0

Inside foo after eval.....
clk=0
rst=1
out=0
=============shubhang_cnt3 : New Iteration===========
Instance : 0

Inside foo before eval.....
clk=0
rst=1
out=0

Inside foo after eval.....
clk=1
rst=1
out=0
=============shubhang_cnt3 : New Iteration===========
Instance : 0

Inside foo before eval.....
clk=1
rst=1
out=0

Inside foo after eval.....
clk=0
rst=1
out=0
=============shubhang_cnt3 : New Iteration===========
Instance : 0

Inside foo before eval.....
clk=0
rst=1
out=0

Inside foo after eval.....
clk=1
rst=1
out=0
=============shubhang_cnt3 : New Iteration===========
Instance : 0

Inside foo before eval.....
clk=1
rst=1
out=0

Inside foo after eval.....
clk=1
rst=0
out=0
=============shubhang_cnt3 : New Iteration===========
Instance : 0

Inside foo before eval.....
clk=1
rst=0
out=0

Inside foo after eval.....
clk=0
rst=0
out=0
=============shubhang_cnt3 : New Iteration===========
Instance : 0

Inside foo before eval.....
clk=0
rst=0
out=0

Inside foo after eval.....
clk=1
rst=0
out=1
=============shubhang_cnt3 : New Iteration===========
Instance : 0

Inside foo before eval.....
clk=1
rst=0
out=1

Inside foo after eval.....
clk=0
rst=0
out=1
=============shubhang_cnt3 : New Iteration===========
Instance : 0

Inside foo before eval.....
clk=0
rst=0
out=1

Inside foo after eval.....
clk=1
rst=0
out=2
=============shubhang_cnt3 : New Iteration===========
Instance : 0

Inside foo before eval.....
clk=1
rst=0
out=2

Inside foo after eval.....
clk=0
rst=0
out=2
=============shubhang_cnt3 : New Iteration===========
Instance : 0

Inside foo before eval.....
clk=0
rst=0
out=2

Inside foo after eval.....
clk=1
rst=0
out=3
=============shubhang_cnt3 : New Iteration===========
Instance : 0

Inside foo before eval.....
clk=1
rst=0
out=3

Inside foo after eval.....
clk=0
rst=0
out=3
=============shubhang_cnt3 : New Iteration===========
Instance : 0

Inside foo before eval.....
clk=0
rst=0
out=3

Inside foo after eval.....
clk=1
rst=0
out=4
=============shubhang_cnt3 : New Iteration===========
Instance : 0

Inside foo before eval.....
clk=1
rst=0
out=4

Inside foo after eval.....
clk=0
rst=0
out=4
=============shubhang_cnt3 : New Iteration===========
Instance : 0

Inside foo before eval.....
clk=0
rst=0
out=4

Inside foo after eval.....
clk=1
rst=0
out=5
=============shubhang_cnt3 : New Iteration===========
Instance : 0

Inside foo before eval.....
clk=1
rst=0
out=5

Inside foo after eval.....
clk=1
rst=1
out=5
=============shubhang_cnt3 : New Iteration===========
Instance : 0

Inside foo before eval.....
clk=1
rst=1
out=5

Inside foo after eval.....
clk=1
rst=1
out=5
=============shubhang_cnt3 : New Iteration===========
Instance : 0

Inside foo before eval.....
clk=1
rst=1
out=5

Inside foo after eval.....
clk=0
rst=1
out=5
=============shubhang_cnt3 : New Iteration===========
Instance : 0

Inside foo before eval.....
clk=0
rst=1
out=5

Inside foo after eval.....
clk=1
rst=1
out=0
=============shubhang_cnt3 : New Iteration===========
Instance : 0

Inside foo before eval.....
clk=1
rst=1
out=0

Inside foo after eval.....
clk=0
rst=1
out=0
=============shubhang_cnt3 : New Iteration===========
Instance : 0

Inside foo before eval.....
clk=0
rst=1
out=0

Inside foo after eval.....
clk=1
rst=1
out=0
=============shubhang_cnt3 : New Iteration===========
Instance : 0

Inside foo before eval.....
clk=1
rst=1
out=0

Inside foo after eval.....
clk=0
rst=1
out=0
=============shubhang_cnt3 : New Iteration===========
Instance : 0

Inside foo before eval.....
clk=0
rst=1
out=0

Inside foo after eval.....
clk=1
rst=1
out=0
=============shubhang_cnt3 : New Iteration===========
Instance : 0

Inside foo before eval.....
clk=1
rst=1
out=0

Inside foo after eval.....
clk=0
rst=1
out=0
=============shubhang_cnt3 : New Iteration===========
Instance : 0

Inside foo before eval.....
clk=0
rst=1
out=0

Inside foo after eval.....
clk=1
rst=1
out=0
=============shubhang_cnt3 : New Iteration===========
Instance : 0

Inside foo before eval.....
clk=1
rst=1
out=0

Inside foo after eval.....
clk=0
rst=1
out=0
=============shubhang_cnt3 : New Iteration===========
Instance : 0

Inside foo before eval.....
clk=0
rst=1
out=0

Inside foo after eval.....
clk=1
rst=1
out=0
=============shubhang_cnt3 : New Iteration===========
Instance : 0

Inside foo before eval.....
clk=1
rst=1
out=0

Inside foo after eval.....
clk=1
rst=0
out=0
=============shubhang_cnt3 : New Iteration===========
Instance : 0

Inside foo before eval.....
clk=1
rst=0
out=0

Inside foo after eval.....
clk=0
rst=0
out=0
=============shubhang_cnt3 : New Iteration===========
Instance : 0

Inside foo before eval.....
clk=0
rst=0
out=0

Inside foo after eval.....
clk=1
rst=0
out=1
=============shubhang_cnt3 : New Iteration===========
Instance : 0

Inside foo before eval.....
clk=1
rst=0
out=1

Inside foo after eval.....
clk=0
rst=0
out=1
=============shubhang_cnt3 : New Iteration===========
Instance : 0

Inside foo before eval.....
clk=0
rst=0
out=1

Inside foo after eval.....
clk=1
rst=0
out=2
=============shubhang_cnt3 : New Iteration===========
Instance : 0

Inside foo before eval.....
clk=1
rst=0
out=2

Inside foo after eval.....
clk=0
rst=0
out=2
=============shubhang_cnt3 : New Iteration===========
Instance : 0

Inside foo before eval.....
clk=0
rst=0
out=2

Inside foo after eval.....
clk=1
rst=0
out=3
=============shubhang_cnt3 : New Iteration===========
Instance : 0

Inside foo before eval.....
clk=1
rst=0
out=3

Inside foo after eval.....
clk=0
rst=0
out=3
=============shubhang_cnt3 : New Iteration===========
Instance : 0

Inside foo before eval.....
clk=0
rst=0
out=3

Inside foo after eval.....
clk=1
rst=0
out=4
=============shubhang_cnt3 : New Iteration===========
Instance : 0

Inside foo before eval.....
clk=1
rst=0
out=4

Inside foo after eval.....
clk=0
rst=0
out=4
=============shubhang_cnt3 : New Iteration===========
Instance : 0

Inside foo before eval.....
clk=0
rst=0
out=4

Inside foo after eval.....
clk=1
rst=0
out=5
=============shubhang_cnt3 : New Iteration===========
Instance : 0

Inside foo before eval.....
clk=1
rst=0
out=5

Inside foo after eval.....
clk=1
rst=1
out=5
=============shubhang_cnt3 : New Iteration===========
Instance : 0

Inside foo before eval.....
clk=1
rst=1
out=5

Inside foo after eval.....
clk=1
rst=1
out=5
=============shubhang_cnt3 : New Iteration===========
Instance : 0

Inside foo before eval.....
clk=1
rst=1
out=5

Inside foo after eval.....
clk=0
rst=1
out=5
=============shubhang_cnt3 : New Iteration===========
Instance : 0

Inside foo before eval.....
clk=0
rst=1
out=5

Inside foo after eval.....
clk=1
rst=1
out=0
=============shubhang_cnt3 : New Iteration===========
Instance : 0

Inside foo before eval.....
clk=1
rst=1
out=0

Inside foo after eval.....
clk=0
rst=1
out=0
=============shubhang_cnt3 : New Iteration===========
Instance : 0

Inside foo before eval.....
clk=0
rst=1
out=0

Inside foo after eval.....
clk=1
rst=1
out=0
=============shubhang_cnt3 : New Iteration===========
Instance : 0

Inside foo before eval.....
clk=1
rst=1
out=0

Inside foo after eval.....
clk=0
rst=1
out=0
=============shubhang_cnt3 : New Iteration===========
Instance : 0

Inside foo before eval.....
clk=0
rst=1
out=0

Inside foo after eval.....
clk=1
rst=1
out=0
=============shubhang_cnt3 : New Iteration===========
Instance : 0

Inside foo before eval.....
clk=1
rst=1
out=0

Inside foo after eval.....
clk=0
rst=1
out=0
=============shubhang_cnt3 : New Iteration===========
Instance : 0

Inside foo before eval.....
clk=0
rst=1
out=0

Inside foo after eval.....
clk=1
rst=1
out=0
=============shubhang_cnt3 : New Iteration===========
Instance : 0

Inside foo before eval.....
clk=1
rst=1
out=0

Inside foo after eval.....
clk=0
rst=1
out=0
=============shubhang_cnt3 : New Iteration===========
Instance : 0

Inside foo before eval.....
clk=0
rst=1
out=0

Inside foo after eval.....
clk=1
rst=1
out=0
=============shubhang_cnt3 : New Iteration===========
Instance : 0

Inside foo before eval.....
clk=1
rst=1
out=0

Inside foo after eval.....
clk=1
rst=0
out=0
=============shubhang_cnt3 : New Iteration===========
Instance : 0

Inside foo before eval.....
clk=1
rst=0
out=0

Inside foo after eval.....
clk=0
rst=0
out=0
=============shubhang_cnt3 : New Iteration===========
Instance : 0

Inside foo before eval.....
clk=0
rst=0
out=0

Inside foo after eval.....
clk=1
rst=0
out=1
=============shubhang_cnt3 : New Iteration===========
Instance : 0

Inside foo before eval.....
clk=1
rst=0
out=1

Inside foo after eval.....
clk=0
rst=0
out=1
=============shubhang_cnt3 : New Iteration===========
Instance : 0

Inside foo before eval.....
clk=0
rst=0
out=1

Inside foo after eval.....
clk=1
rst=0
out=2
=============shubhang_cnt3 : New Iteration===========
Instance : 0

Inside foo before eval.....
clk=1
rst=0
out=2

Inside foo after eval.....
clk=0
rst=0
out=2
=============shubhang_cnt3 : New Iteration===========
Instance : 0

Inside foo before eval.....
clk=0
rst=0
out=2

Inside foo after eval.....
clk=1
rst=0
out=3
=============shubhang_cnt3 : New Iteration===========
Instance : 0

Inside foo before eval.....
clk=1
rst=0
out=3

Inside foo after eval.....
clk=0
rst=0
out=3
=============shubhang_cnt3 : New Iteration===========
Instance : 0

Inside foo before eval.....
clk=0
rst=0
out=3

Inside foo after eval.....
clk=1
rst=0
out=4
=============shubhang_cnt3 : New Iteration===========
Instance : 0

Inside foo before eval.....
clk=1
rst=0
out=4

Inside foo after eval.....
clk=0
rst=0
out=4

No. of Data Rows : 2136
ERROR: (internal)  This operation is not defined for display type PrinterOnly.
Can't open viewport for graphics.
ERROR: (internal)  This operation is not defined for display type PrinterOnly.
Can't open viewport for graphics.
ERROR: (internal)  This operation is not defined for display type PrinterOnly.
Can't open viewport for graphics.
ERROR: (internal)  This operation is not defined for display type PrinterOnly.
Can't open viewport for graphics.
ERROR: (internal)  This operation is not defined for display type PrinterOnly.
Can't open viewport for graphics.
binary raw file "/home/2019uee0117/eSim-Workspace/counter/counter.raw"
Reducing trtol to 1 for xspice 'A' devices
Doing analysis at TEMP = 27.000000 and TNOM = 27.000000

Warning: include: has no value, DC 0 assumed
Warning: v1: no DC value, transient time 0 value used
Warning: v3: no DC value, transient time 0 value used
No. of Data Columns : 30  
=============shubhang_cnt3 : New Iteration===========
Instance : 1

Inside foo before eval.....
clk=0
rst=0
out=0

Inside foo after eval.....
clk=0
rst=0
out=0
=============shubhang_cnt3 : New Iteration===========
Instance : 1

Inside foo before eval.....
clk=0
rst=0
out=0

Inside foo after eval.....
clk=0
rst=0
out=0
=============shubhang_cnt3 : New Iteration===========
Instance : 1

Inside foo before eval.....
clk=0
rst=0
out=0

Inside foo after eval.....
clk=1
rst=0
out=1
=============shubhang_cnt3 : New Iteration===========
Instance : 1

Inside foo before eval.....
clk=1
rst=0
out=1

Inside foo after eval.....
clk=1
rst=1
out=1
=============shubhang_cnt3 : New Iteration===========
Instance : 1

Inside foo before eval.....
clk=1
rst=1
out=1

Inside foo after eval.....
clk=1
rst=1
out=1
=============shubhang_cnt3 : New Iteration===========
Instance : 1

Inside foo before eval.....
clk=1
rst=1
out=1

Inside foo after eval.....
clk=0
rst=1
out=1
=============shubhang_cnt3 : New Iteration===========
Instance : 1

Inside foo before eval.....
clk=0
rst=1
out=1

Inside foo after eval.....
clk=1
rst=1
out=0
=============shubhang_cnt3 : New Iteration===========
Instance : 1

Inside foo before eval.....
clk=1
rst=1
out=0

Inside foo after eval.....
clk=0
rst=1
out=0
=============shubhang_cnt3 : New Iteration===========
Instance : 1

Inside foo before eval.....
clk=0
rst=1
out=0

Inside foo after eval.....
clk=1
rst=1
out=0
=============shubhang_cnt3 : New Iteration===========
Instance : 1

Inside foo before eval.....
clk=1
rst=1
out=0

Inside foo after eval.....
clk=0
rst=1
out=0
=============shubhang_cnt3 : New Iteration===========
Instance : 1

Inside foo before eval.....
clk=0
rst=1
out=0

Inside foo after eval.....
clk=1
rst=1
out=0
=============shubhang_cnt3 : New Iteration===========
Instance : 1

Inside foo before eval.....
clk=1
rst=1
out=0

Inside foo after eval.....
clk=0
rst=1
out=0
=============shubhang_cnt3 : New Iteration===========
Instance : 1

Inside foo before eval.....
clk=0
rst=1
out=0

Inside foo after eval.....
clk=1
rst=1
out=0
=============shubhang_cnt3 : New Iteration===========
Instance : 1

Inside foo before eval.....
clk=1
rst=1
out=0

Inside foo after eval.....
clk=0
rst=1
out=0
=============shubhang_cnt3 : New Iteration===========
Instance : 1

Inside foo before eval.....
clk=0
rst=1
out=0

Inside foo after eval.....
clk=1
rst=1
out=0
=============shubhang_cnt3 : New Iteration===========
Instance : 1

Inside foo before eval.....
clk=1
rst=1
out=0

Inside foo after eval.....
clk=1
rst=0
out=0
=============shubhang_cnt3 : New Iteration===========
Instance : 1

Inside foo before eval.....
clk=1
rst=0
out=0

Inside foo after eval.....
clk=0
rst=0
out=0
=============shubhang_cnt3 : New Iteration===========
Instance : 1

Inside foo before eval.....
clk=0
rst=0
out=0

Inside foo after eval.....
clk=1
rst=0
out=1
=============shubhang_cnt3 : New Iteration===========
Instance : 1

Inside foo before eval.....
clk=1
rst=0
out=1

Inside foo after eval.....
clk=0
rst=0
out=1
=============shubhang_cnt3 : New Iteration===========
Instance : 1

Inside foo before eval.....
clk=0
rst=0
out=1

Inside foo after eval.....
clk=1
rst=0
out=2
=============shubhang_cnt3 : New Iteration===========
Instance : 1

Inside foo before eval.....
clk=1
rst=0
out=2

Inside foo after eval.....
clk=0
rst=0
out=2
=============shubhang_cnt3 : New Iteration===========
Instance : 1

Inside foo before eval.....
clk=0
rst=0
out=2

Inside foo after eval.....
clk=1
rst=0
out=3
=============shubhang_cnt3 : New Iteration===========
Instance : 1

Inside foo before eval.....
clk=1
rst=0
out=3

Inside foo after eval.....
clk=0
rst=0
out=3
=============shubhang_cnt3 : New Iteration===========
Instance : 1

Inside foo before eval.....
clk=0
rst=0
out=3

Inside foo after eval.....
clk=1
rst=0
out=4
=============shubhang_cnt3 : New Iteration===========
Instance : 1

Inside foo before eval.....
clk=1
rst=0
out=4

Inside foo after eval.....
clk=0
rst=0
out=4
=============shubhang_cnt3 : New Iteration===========
Instance : 1

Inside foo before eval.....
clk=0
rst=0
out=4

Inside foo after eval.....
clk=1
rst=0
out=5
=============shubhang_cnt3 : New Iteration===========
Instance : 1

Inside foo before eval.....
clk=1
rst=0
out=5

Inside foo after eval.....
clk=1
rst=1
out=5
=============shubhang_cnt3 : New Iteration===========
Instance : 1

Inside foo before eval.....
clk=1
rst=1
out=5

Inside foo after eval.....
clk=1
rst=1
out=5
=============shubhang_cnt3 : New Iteration===========
Instance : 1

Inside foo before eval.....
clk=1
rst=1
out=5

Inside foo after eval.....
clk=0
rst=1
out=5
=============shubhang_cnt3 : New Iteration===========
Instance : 1

Inside foo before eval.....
clk=0
rst=1
out=5

Inside foo after eval.....
clk=1
rst=1
out=0
=============shubhang_cnt3 : New Iteration===========
Instance : 1

Inside foo before eval.....
clk=1
rst=1
out=0

Inside foo after eval.....
clk=0
rst=1
out=0
=============shubhang_cnt3 : New Iteration===========
Instance : 1

Inside foo before eval.....
clk=0
rst=1
out=0

Inside foo after eval.....
clk=1
rst=1
out=0
=============shubhang_cnt3 : New Iteration===========
Instance : 1

Inside foo before eval.....
clk=1
rst=1
out=0

Inside foo after eval.....
clk=0
rst=1
out=0
=============shubhang_cnt3 : New Iteration===========
Instance : 1

Inside foo before eval.....
clk=0
rst=1
out=0

Inside foo after eval.....
clk=1
rst=1
out=0
=============shubhang_cnt3 : New Iteration===========
Instance : 1

Inside foo before eval.....
clk=1
rst=1
out=0

Inside foo after eval.....
clk=0
rst=1
out=0
=============shubhang_cnt3 : New Iteration===========
Instance : 1

Inside foo before eval.....
clk=0
rst=1
out=0

Inside foo after eval.....
clk=1
rst=1
out=0
=============shubhang_cnt3 : New Iteration===========
Instance : 1

Inside foo before eval.....
clk=1
rst=1
out=0

Inside foo after eval.....
clk=0
rst=1
out=0
=============shubhang_cnt3 : New Iteration===========
Instance : 1

Inside foo before eval.....
clk=0
rst=1
out=0

Inside foo after eval.....
clk=1
rst=1
out=0
=============shubhang_cnt3 : New Iteration===========
Instance : 1

Inside foo before eval.....
clk=1
rst=1
out=0

Inside foo after eval.....
clk=1
rst=0
out=0
=============shubhang_cnt3 : New Iteration===========
Instance : 1

Inside foo before eval.....
clk=1
rst=0
out=0

Inside foo after eval.....
clk=0
rst=0
out=0
=============shubhang_cnt3 : New Iteration===========
Instance : 1

Inside foo before eval.....
clk=0
rst=0
out=0

Inside foo after eval.....
clk=1
rst=0
out=1
=============shubhang_cnt3 : New Iteration===========
Instance : 1

Inside foo before eval.....
clk=1
rst=0
out=1

Inside foo after eval.....
clk=0
rst=0
out=1
=============shubhang_cnt3 : New Iteration===========
Instance : 1

Inside foo before eval.....
clk=0
rst=0
out=1

Inside foo after eval.....
clk=1
rst=0
out=2
=============shubhang_cnt3 : New Iteration===========
Instance : 1

Inside foo before eval.....
clk=1
rst=0
out=2

Inside foo after eval.....
clk=0
rst=0
out=2
=============shubhang_cnt3 : New Iteration===========
Instance : 1

Inside foo before eval.....
clk=0
rst=0
out=2

Inside foo after eval.....
clk=1
rst=0
out=3
=============shubhang_cnt3 : New Iteration===========
Instance : 1

Inside foo before eval.....
clk=1
rst=0
out=3

Inside foo after eval.....
clk=0
rst=0
out=3
=============shubhang_cnt3 : New Iteration===========
Instance : 1

Inside foo before eval.....
clk=0
rst=0
out=3

Inside foo after eval.....
clk=1
rst=0
out=4
=============shubhang_cnt3 : New Iteration===========
Instance : 1

Inside foo before eval.....
clk=1
rst=0
out=4

Inside foo after eval.....
clk=0
rst=0
out=4
=============shubhang_cnt3 : New Iteration===========
Instance : 1

Inside foo before eval.....
clk=0
rst=0
out=4

Inside foo after eval.....
clk=1
rst=0
out=5
=============shubhang_cnt3 : New Iteration===========
Instance : 1

Inside foo before eval.....
clk=1
rst=0
out=5

Inside foo after eval.....
clk=1
rst=1
out=5
=============shubhang_cnt3 : New Iteration===========
Instance : 1

Inside foo before eval.....
clk=1
rst=1
out=5

Inside foo after eval.....
clk=1
rst=1
out=5
=============shubhang_cnt3 : New Iteration===========
Instance : 1

Inside foo before eval.....
clk=1
rst=1
out=5

Inside foo after eval.....
clk=0
rst=1
out=5
=============shubhang_cnt3 : New Iteration===========
Instance : 1

Inside foo before eval.....
clk=0
rst=1
out=5

Inside foo after eval.....
clk=1
rst=1
out=0
=============shubhang_cnt3 : New Iteration===========
Instance : 1

Inside foo before eval.....
clk=1
rst=1
out=0

Inside foo after eval.....
clk=0
rst=1
out=0
=============shubhang_cnt3 : New Iteration===========
Instance : 1

Inside foo before eval.....
clk=0
rst=1
out=0

Inside foo after eval.....
clk=1
rst=1
out=0
=============shubhang_cnt3 : New Iteration===========
Instance : 1

Inside foo before eval.....
clk=1
rst=1
out=0

Inside foo after eval.....
clk=0
rst=1
out=0
=============shubhang_cnt3 : New Iteration===========
Instance : 1

Inside foo before eval.....
clk=0
rst=1
out=0

Inside foo after eval.....
clk=1
rst=1
out=0
=============shubhang_cnt3 : New Iteration===========
Instance : 1

Inside foo before eval.....
clk=1
rst=1
out=0

Inside foo after eval.....
clk=0
rst=1
out=0
=============shubhang_cnt3 : New Iteration===========
Instance : 1

Inside foo before eval.....
clk=0
rst=1
out=0

Inside foo after eval.....
clk=1
rst=1
out=0
=============shubhang_cnt3 : New Iteration===========
Instance : 1

Inside foo before eval.....
clk=1
rst=1
out=0

Inside foo after eval.....
clk=0
rst=1
out=0
=============shubhang_cnt3 : New Iteration===========
Instance : 1

Inside foo before eval.....
clk=0
rst=1
out=0

Inside foo after eval.....
clk=1
rst=1
out=0
=============shubhang_cnt3 : New Iteration===========
Instance : 1

Inside foo before eval.....
clk=1
rst=1
out=0

Inside foo after eval.....
clk=1
rst=0
out=0
=============shubhang_cnt3 : New Iteration===========
Instance : 1

Inside foo before eval.....
clk=1
rst=0
out=0

Inside foo after eval.....
clk=0
rst=0
out=0
=============shubhang_cnt3 : New Iteration===========
Instance : 1

Inside foo before eval.....
clk=0
rst=0
out=0

Inside foo after eval.....
clk=1
rst=0
out=1
=============shubhang_cnt3 : New Iteration===========
Instance : 1

Inside foo before eval.....
clk=1
rst=0
out=1

Inside foo after eval.....
clk=0
rst=0
out=1
=============shubhang_cnt3 : New Iteration===========
Instance : 1

Inside foo before eval.....
clk=0
rst=0
out=1

Inside foo after eval.....
clk=1
rst=0
out=2
=============shubhang_cnt3 : New Iteration===========
Instance : 1

Inside foo before eval.....
clk=1
rst=0
out=2

Inside foo after eval.....
clk=0
rst=0
out=2
=============shubhang_cnt3 : New Iteration===========
Instance : 1

Inside foo before eval.....
clk=0
rst=0
out=2

Inside foo after eval.....
clk=1
rst=0
out=3
=============shubhang_cnt3 : New Iteration===========
Instance : 1

Inside foo before eval.....
clk=1
rst=0
out=3

Inside foo after eval.....
clk=0
rst=0
out=3
=============shubhang_cnt3 : New Iteration===========
Instance : 1

Inside foo before eval.....
clk=0
rst=0
out=3

Inside foo after eval.....
clk=1
rst=0
out=4
=============shubhang_cnt3 : New Iteration===========
Instance : 1

Inside foo before eval.....
clk=1
rst=0
out=4

Inside foo after eval.....
clk=0
rst=0
out=4
=============shubhang_cnt3 : New Iteration===========
Instance : 1

Inside foo before eval.....
clk=0
rst=0
out=4

Inside foo after eval.....
clk=1
rst=0
out=5
=============shubhang_cnt3 : New Iteration===========
Instance : 1

Inside foo before eval.....
clk=1
rst=0
out=5

Inside foo after eval.....
clk=1
rst=1
out=5
=============shubhang_cnt3 : New Iteration===========
Instance : 1

Inside foo before eval.....
clk=1
rst=1
out=5

Inside foo after eval.....
clk=1
rst=1
out=5
=============shubhang_cnt3 : New Iteration===========
Instance : 1

Inside foo before eval.....
clk=1
rst=1
out=5

Inside foo after eval.....
clk=0
rst=1
out=5
=============shubhang_cnt3 : New Iteration===========
Instance : 1

Inside foo before eval.....
clk=0
rst=1
out=5

Inside foo after eval.....
clk=1
rst=1
out=0
=============shubhang_cnt3 : New Iteration===========
Instance : 1

Inside foo before eval.....
clk=1
rst=1
out=0

Inside foo after eval.....
clk=0
rst=1
out=0
=============shubhang_cnt3 : New Iteration===========
Instance : 1

Inside foo before eval.....
clk=0
rst=1
out=0

Inside foo after eval.....
clk=1
rst=1
out=0
=============shubhang_cnt3 : New Iteration===========
Instance : 1

Inside foo before eval.....
clk=1
rst=1
out=0

Inside foo after eval.....
clk=0
rst=1
out=0
=============shubhang_cnt3 : New Iteration===========
Instance : 1

Inside foo before eval.....
clk=0
rst=1
out=0

Inside foo after eval.....
clk=1
rst=1
out=0
=============shubhang_cnt3 : New Iteration===========
Instance : 1

Inside foo before eval.....
clk=1
rst=1
out=0

Inside foo after eval.....
clk=0
rst=1
out=0
=============shubhang_cnt3 : New Iteration===========
Instance : 1

Inside foo before eval.....
clk=0
rst=1
out=0

Inside foo after eval.....
clk=1
rst=1
out=0
=============shubhang_cnt3 : New Iteration===========
Instance : 1

Inside foo before eval.....
clk=1
rst=1
out=0

Inside foo after eval.....
clk=0
rst=1
out=0
=============shubhang_cnt3 : New Iteration===========
Instance : 1

Inside foo before eval.....
clk=0
rst=1
out=0

Inside foo after eval.....
clk=1
rst=1
out=0
=============shubhang_cnt3 : New Iteration===========
Instance : 1

Inside foo before eval.....
clk=1
rst=1
out=0

Inside foo after eval.....
clk=1
rst=0
out=0
=============shubhang_cnt3 : New Iteration===========
Instance : 1

Inside foo before eval.....
clk=1
rst=0
out=0

Inside foo after eval.....
clk=0
rst=0
out=0
=============shubhang_cnt3 : New Iteration===========
Instance : 1

Inside foo before eval.....
clk=0
rst=0
out=0

Inside foo after eval.....
clk=1
rst=0
out=1
=============shubhang_cnt3 : New Iteration===========
Instance : 1

Inside foo before eval.....
clk=1
rst=0
out=1

Inside foo after eval.....
clk=0
rst=0
out=1
=============shubhang_cnt3 : New Iteration===========
Instance : 1

Inside foo before eval.....
clk=0
rst=0
out=1

Inside foo after eval.....
clk=1
rst=0
out=2
=============shubhang_cnt3 : New Iteration===========
Instance : 1

Inside foo before eval.....
clk=1
rst=0
out=2

Inside foo after eval.....
clk=0
rst=0
out=2
=============shubhang_cnt3 : New Iteration===========
Instance : 1

Inside foo before eval.....
clk=0
rst=0
out=2

Inside foo after eval.....
clk=1
rst=0
out=3
=============shubhang_cnt3 : New Iteration===========
Instance : 1

Inside foo before eval.....
clk=1
rst=0
out=3

Inside foo after eval.....
clk=0
rst=0
out=3
=============shubhang_cnt3 : New Iteration===========
Instance : 1

Inside foo before eval.....
clk=0
rst=0
out=3

Inside foo after eval.....
clk=1
rst=0
out=4
=============shubhang_cnt3 : New Iteration===========
Instance : 1

Inside foo before eval.....
clk=1
rst=0
out=4

Inside foo after eval.....
clk=0
rst=0
out=4
=============shubhang_cnt3 : New Iteration===========
Instance : 1

Inside foo before eval.....
clk=0
rst=0
out=4

Inside foo after eval.....
clk=1
rst=0
out=5
=============shubhang_cnt3 : New Iteration===========
Instance : 1

Inside foo before eval.....
clk=1
rst=0
out=5

Inside foo after eval.....
clk=1
rst=1
out=5
=============shubhang_cnt3 : New Iteration===========
Instance : 1

Inside foo before eval.....
clk=1
rst=1
out=5

Inside foo after eval.....
clk=1
rst=1
out=5
=============shubhang_cnt3 : New Iteration===========
Instance : 1

Inside foo before eval.....
clk=1
rst=1
out=5

Inside foo after eval.....
clk=0
rst=1
out=5
=============shubhang_cnt3 : New Iteration===========
Instance : 1

Inside foo before eval.....
clk=0
rst=1
out=5

Inside foo after eval.....
clk=1
rst=1
out=0
=============shubhang_cnt3 : New Iteration===========
Instance : 1

Inside foo before eval.....
clk=1
rst=1
out=0

Inside foo after eval.....
clk=0
rst=1
out=0
=============shubhang_cnt3 : New Iteration===========
Instance : 1

Inside foo before eval.....
clk=0
rst=1
out=0

Inside foo after eval.....
clk=1
rst=1
out=0
=============shubhang_cnt3 : New Iteration===========
Instance : 1

Inside foo before eval.....
clk=1
rst=1
out=0

Inside foo after eval.....
clk=0
rst=1
out=0
=============shubhang_cnt3 : New Iteration===========
Instance : 1

Inside foo before eval.....
clk=0
rst=1
out=0

Inside foo after eval.....
clk=1
rst=1
out=0
=============shubhang_cnt3 : New Iteration===========
Instance : 1

Inside foo before eval.....
clk=1
rst=1
out=0

Inside foo after eval.....
clk=0
rst=1
out=0
=============shubhang_cnt3 : New Iteration===========
Instance : 1

Inside foo before eval.....
clk=0
rst=1
out=0

Inside foo after eval.....
clk=1
rst=1
out=0
=============shubhang_cnt3 : New Iteration===========
Instance : 1

Inside foo before eval.....
clk=1
rst=1
out=0

Inside foo after eval.....
clk=0
rst=1
out=0
=============shubhang_cnt3 : New Iteration===========
Instance : 1

Inside foo before eval.....
clk=0
rst=1
out=0

Inside foo after eval.....
clk=1
rst=1
out=0
=============shubhang_cnt3 : New Iteration===========
Instance : 1

Inside foo before eval.....
clk=1
rst=1
out=0

Inside foo after eval.....
clk=1
rst=0
out=0
=============shubhang_cnt3 : New Iteration===========
Instance : 1

Inside foo before eval.....
clk=1
rst=0
out=0

Inside foo after eval.....
clk=0
rst=0
out=0
=============shubhang_cnt3 : New Iteration===========
Instance : 1

Inside foo before eval.....
clk=0
rst=0
out=0

Inside foo after eval.....
clk=1
rst=0
out=1
=============shubhang_cnt3 : New Iteration===========
Instance : 1

Inside foo before eval.....
clk=1
rst=0
out=1

Inside foo after eval.....
clk=0
rst=0
out=1
=============shubhang_cnt3 : New Iteration===========
Instance : 1

Inside foo before eval.....
clk=0
rst=0
out=1

Inside foo after eval.....
clk=1
rst=0
out=2
=============shubhang_cnt3 : New Iteration===========
Instance : 1

Inside foo before eval.....
clk=1
rst=0
out=2

Inside foo after eval.....
clk=0
rst=0
out=2
=============shubhang_cnt3 : New Iteration===========
Instance : 1

Inside foo before eval.....
clk=0
rst=0
out=2

Inside foo after eval.....
clk=1
rst=0
out=3
=============shubhang_cnt3 : New Iteration===========
Instance : 1

Inside foo before eval.....
clk=1
rst=0
out=3

Inside foo after eval.....
clk=0
rst=0
out=3
=============shubhang_cnt3 : New Iteration===========
Instance : 1

Inside foo before eval.....
clk=0
rst=0
out=3

Inside foo after eval.....
clk=1
rst=0
out=4
=============shubhang_cnt3 : New Iteration===========
Instance : 1

Inside foo before eval.....
clk=1
rst=0
out=4

Inside foo after eval.....
clk=0
rst=0
out=4

No. of Data Rows : 2138

Total analysis time (seconds) = 0.191431

Total CPU time (seconds) = 11.045 

Total DRAM available = 257855.305 MB.
DRAM currently available = 229593.812 MB.
Maximum ngspice program size =  397.594 MB.
Current ngspice program size =  332.125 MB.

Shared ngspice pages =   10.055 MB.
Text (code) pages =    6.285 MB.
Stack = 0 bytes.
Library pages =  325.262 MB.

